*HEADING
 CFRTP 3D mixed-mode interlaminar delamination (COH3D8 + B-K)
 Two C3D8 sublaminates + cohesive layer. Generated by gen_inp.py.
**
*NODE, NSET=NALL
 1, 0.000000e+00, 0.000000e+00, 0.000000e+00
 2, 1.500000e-03, 0.000000e+00, 0.000000e+00
 3, 3.000000e-03, 0.000000e+00, 0.000000e+00
 4, 4.500000e-03, 0.000000e+00, 0.000000e+00
 5, 6.000000e-03, 0.000000e+00, 0.000000e+00
 6, 7.500000e-03, 0.000000e+00, 0.000000e+00
 7, 9.000000e-03, 0.000000e+00, 0.000000e+00
 8, 1.050000e-02, 0.000000e+00, 0.000000e+00
 9, 1.200000e-02, 0.000000e+00, 0.000000e+00
 10, 1.350000e-02, 0.000000e+00, 0.000000e+00
 11, 1.500000e-02, 0.000000e+00, 0.000000e+00
 12, 1.650000e-02, 0.000000e+00, 0.000000e+00
 13, 1.800000e-02, 0.000000e+00, 0.000000e+00
 14, 1.950000e-02, 0.000000e+00, 0.000000e+00
 15, 2.100000e-02, 0.000000e+00, 0.000000e+00
 16, 2.250000e-02, 0.000000e+00, 0.000000e+00
 17, 2.400000e-02, 0.000000e+00, 0.000000e+00
 18, 2.550000e-02, 0.000000e+00, 0.000000e+00
 19, 2.700000e-02, 0.000000e+00, 0.000000e+00
 20, 2.850000e-02, 0.000000e+00, 0.000000e+00
** ... 636 like lines cut
*ELEMENT, TYPE=C3D8, ELSET=BOT
 1, 1, 2, 43, 42, 165, 166, 207, 206
 2, 2, 3, 44, 43, 166, 167, 208, 207
 3, 3, 4, 45, 44, 167, 168, 209, 208
 4, 4, 5, 46, 45, 168, 169, 210, 209
 5, 5, 6, 47, 46, 169, 170, 211, 210
 6, 6, 7, 48, 47, 170, 171, 212, 211
 7, 7, 8, 49, 48, 171, 172, 213, 212
 8, 8, 9, 50, 49, 172, 173, 214, 213
 9, 9, 10, 51, 50, 173, 174, 215, 214
 10, 10, 11, 52, 51, 174, 175, 216, 215
 11, 11, 12, 53, 52, 175, 176, 217, 216
 12, 12, 13, 54, 53, 176, 177, 218, 217
 13, 13, 14, 55, 54, 177, 178, 219, 218
 14, 14, 15, 56, 55, 178, 179, 220, 219
 15, 15, 16, 57, 56, 179, 180, 221, 220
 16, 16, 17, 58, 57, 180, 181, 222, 221
 17, 17, 18, 59, 58, 181, 182, 223, 222
 18, 18, 19, 60, 59, 182, 183, 224, 223
 19, 19, 20, 61, 60, 183, 184, 225, 224
 20, 20, 21, 62, 61, 184, 185, 226, 225
** ... 100 like lines cut
*ELEMENT, TYPE=C3D8, ELSET=TOP
 1000001, 329, 330, 371, 370, 493, 494, 535, 534
 1000002, 330, 331, 372, 371, 494, 495, 536, 535
 1000003, 331, 332, 373, 372, 495, 496, 537, 536
 1000004, 332, 333, 374, 373, 496, 497, 538, 537
 1000005, 333, 334, 375, 374, 497, 498, 539, 538
 1000006, 334, 335, 376, 375, 498, 499, 540, 539
 1000007, 335, 336, 377, 376, 499, 500, 541, 540
 1000008, 336, 337, 378, 377, 500, 501, 542, 541
 1000009, 337, 338, 379, 378, 501, 502, 543, 542
 1000010, 338, 339, 380, 379, 502, 503, 544, 543
 1000011, 339, 340, 381, 380, 503, 504, 545, 544
 1000012, 340, 341, 382, 381, 504, 505, 546, 545
 1000013, 341, 342, 383, 382, 505, 506, 547, 546
 1000014, 342, 343, 384, 383, 506, 507, 548, 547
 1000015, 343, 344, 385, 384, 507, 508, 549, 548
 1000016, 344, 345, 386, 385, 508, 509, 550, 549
 1000017, 345, 346, 387, 386, 509, 510, 551, 550
 1000018, 346, 347, 388, 387, 510, 511, 552, 551
 1000019, 347, 348, 389, 388, 511, 512, 553, 552
 1000020, 348, 349, 390, 389, 512, 513, 554, 553
** ... 100 like lines cut
*ELEMENT, TYPE=COH3D8, ELSET=COH
 2000001, 175, 176, 217, 216, 339, 340, 381, 380
 2000002, 176, 177, 218, 217, 340, 341, 382, 381
 2000003, 177, 178, 219, 218, 341, 342, 383, 382
 2000004, 178, 179, 220, 219, 342, 343, 384, 383
 2000005, 179, 180, 221, 220, 343, 344, 385, 384
 2000006, 180, 181, 222, 221, 344, 345, 386, 385
 2000007, 181, 182, 223, 222, 345, 346, 387, 386
 2000008, 182, 183, 224, 223, 346, 347, 388, 387
 2000009, 183, 184, 225, 224, 347, 348, 389, 388
 2000010, 184, 185, 226, 225, 348, 349, 390, 389
 2000011, 185, 186, 227, 226, 349, 350, 391, 390
 2000012, 186, 187, 228, 227, 350, 351, 392, 391
 2000013, 187, 188, 229, 228, 351, 352, 393, 392
 2000014, 188, 189, 230, 229, 352, 353, 394, 393
 2000015, 189, 190, 231, 230, 353, 354, 395, 394
 2000016, 190, 191, 232, 231, 354, 355, 396, 395
 2000017, 191, 192, 233, 232, 355, 356, 397, 396
 2000018, 192, 193, 234, 233, 356, 357, 398, 397
 2000019, 193, 194, 235, 234, 357, 358, 399, 398
 2000020, 194, 195, 236, 235, 358, 359, 400, 399
** ... 70 like lines cut
**
*SOLID SECTION, ELSET=BOT, MATERIAL=PLY
*SOLID SECTION, ELSET=TOP, MATERIAL=PLY
*SECTION CONTROLS, NAME=COHVISC, VISCOSITY=1.0e-5
*COHESIVE SECTION, ELSET=COH, MATERIAL=INTERFACE, RESPONSE=TRACTION SEPARATION, THICKNESS=SPECIFIED, CONTROLS=COHVISC
 1.0
**
*MATERIAL, NAME=PLY
*ELASTIC
 60.0e9, 0.30
*MATERIAL, NAME=INTERFACE
*ELASTIC, TYPE=TRACTION
 1.0e14, 1.0e14, 1.0e14
*DAMAGE INITIATION, CRITERION=QUADS
 12.0e6, 18.0e6, 18.0e6
*DAMAGE EVOLUTION, TYPE=ENERGY, MIXED MODE BEHAVIOR=BK, POWER=1.6
 200.0, 600.0, 600.0
**
*NSET, NSET=CLAMP
 41, 82, 123, 164, 205, 246, 287, 328
 369, 410, 451, 492, 533, 574, 615, 656
*NSET, NSET=TIP
 329, 370, 411, 452, 493, 534, 575, 616
*BOUNDARY
 CLAMP, 1, 3, 0.0
**
*STEP, NLGEOM=YES, INC=1000
*STATIC
 0.002, 1.0, 1.0e-8, 0.02
*BOUNDARY
 TIP, 1, 1, 3.000000e-04
 TIP, 2, 2, 0.0
 TIP, 3, 3, 5.196152e-04
*CONTROLS, ANALYSIS=DISCONTINUOUS
*OUTPUT, FIELD
*ELEMENT OUTPUT, ELSET=COH
 SDEG, STATUS
*NODE OUTPUT
 U, RF
*END STEP
