*HEADING
 CFRTP mixed-mode interlaminar delamination (2D plane strain)
 built-in cohesive (COH2D4) + Benzeggagh-Kenane. Generated by gen_inp.py.
**
*NODE, NSET=NALL
 1, 0.000000e+00, 0.000000e+00
 2, 1.000000e-03, 0.000000e+00
 3, 2.000000e-03, 0.000000e+00
 4, 3.000000e-03, 0.000000e+00
 5, 4.000000e-03, 0.000000e+00
 6, 5.000000e-03, 0.000000e+00
 7, 6.000000e-03, 0.000000e+00
 8, 7.000000e-03, 0.000000e+00
 9, 8.000000e-03, 0.000000e+00
 10, 9.000000e-03, 0.000000e+00
 11, 1.000000e-02, 0.000000e+00
 12, 1.100000e-02, 0.000000e+00
 13, 1.200000e-02, 0.000000e+00
 14, 1.300000e-02, 0.000000e+00
 15, 1.400000e-02, 0.000000e+00
 16, 1.500000e-02, 0.000000e+00
 17, 1.600000e-02, 0.000000e+00
 18, 1.700000e-02, 0.000000e+00
 19, 1.800000e-02, 0.000000e+00
 20, 1.900000e-02, 0.000000e+00
** ... 346 like lines cut
*ELEMENT, TYPE=CPE4, ELSET=BOT
 1, 1, 2, 63, 62
 2, 2, 3, 64, 63
 3, 3, 4, 65, 64
 4, 4, 5, 66, 65
 5, 5, 6, 67, 66
 6, 6, 7, 68, 67
 7, 7, 8, 69, 68
 8, 8, 9, 70, 69
 9, 9, 10, 71, 70
 10, 10, 11, 72, 71
 11, 11, 12, 73, 72
 12, 12, 13, 74, 73
 13, 13, 14, 75, 74
 14, 14, 15, 76, 75
 15, 15, 16, 77, 76
 16, 16, 17, 78, 77
 17, 17, 18, 79, 78
 18, 18, 19, 80, 79
 19, 19, 20, 81, 80
 20, 20, 21, 82, 81
** ... 100 like lines cut
*ELEMENT, TYPE=CPE4, ELSET=TOP
 1000001, 184, 185, 246, 245
 1000002, 185, 186, 247, 246
 1000003, 186, 187, 248, 247
 1000004, 187, 188, 249, 248
 1000005, 188, 189, 250, 249
 1000006, 189, 190, 251, 250
 1000007, 190, 191, 252, 251
 1000008, 191, 192, 253, 252
 1000009, 192, 193, 254, 253
 1000010, 193, 194, 255, 254
 1000011, 194, 195, 256, 255
 1000012, 195, 196, 257, 256
 1000013, 196, 197, 258, 257
 1000014, 197, 198, 259, 258
 1000015, 198, 199, 260, 259
 1000016, 199, 200, 261, 260
 1000017, 200, 201, 262, 261
 1000018, 201, 202, 263, 262
 1000019, 202, 203, 264, 263
 1000020, 203, 204, 265, 264
** ... 100 like lines cut
*ELEMENT, TYPE=COH2D4, ELSET=COH
 2000001, 138, 139, 200, 199
 2000002, 139, 140, 201, 200
 2000003, 140, 141, 202, 201
 2000004, 141, 142, 203, 202
 2000005, 142, 143, 204, 203
 2000006, 143, 144, 205, 204
 2000007, 144, 145, 206, 205
 2000008, 145, 146, 207, 206
 2000009, 146, 147, 208, 207
 2000010, 147, 148, 209, 208
 2000011, 148, 149, 210, 209
 2000012, 149, 150, 211, 210
 2000013, 150, 151, 212, 211
 2000014, 151, 152, 213, 212
 2000015, 152, 153, 214, 213
 2000016, 153, 154, 215, 214
 2000017, 154, 155, 216, 215
 2000018, 155, 156, 217, 216
 2000019, 156, 157, 218, 217
 2000020, 157, 158, 219, 218
** ... 25 like lines cut
**
*SOLID SECTION, ELSET=BOT, MATERIAL=PLY
*SOLID SECTION, ELSET=TOP, MATERIAL=PLY
*SECTION CONTROLS, NAME=COHVISC, VISCOSITY=1.0e-5
*COHESIVE SECTION, ELSET=COH, MATERIAL=INTERFACE, RESPONSE=TRACTION SEPARATION, THICKNESS=SPECIFIED, CONTROLS=COHVISC
 1.0
**
*MATERIAL, NAME=PLY
*ELASTIC
 60.0e9, 0.30
*MATERIAL, NAME=INTERFACE
*ELASTIC, TYPE=TRACTION
 1.0e14, 1.0e14, 1.0e14
*DAMAGE INITIATION, CRITERION=QUADS
 12.0e6, 18.0e6, 18.0e6
*DAMAGE EVOLUTION, TYPE=ENERGY, MIXED MODE BEHAVIOR=BK, POWER=1.6
 200.0, 600.0, 600.0
**
*NSET, NSET=CLAMP
 61, 122, 183, 244, 305, 366
*NSET, NSET=TIP
 306,
*BOUNDARY
 CLAMP, 1, 2, 0.0
**
*STEP, NLGEOM=YES, INC=1000
*STATIC
 0.002, 1.0, 1.0e-8, 0.02
*BOUNDARY
 TIP, 1, 1, 2.113091e-04
 TIP, 2, 2, 4.531539e-04
*CONTROLS, ANALYSIS=DISCONTINUOUS
*OUTPUT, FIELD
*ELEMENT OUTPUT, ELSET=COH
 SDEG, STATUS
*NODE OUTPUT
 U, RF
*END STEP
